**
** ABAQUS Input Deck Generated by HyperMesh Version  : 2022.0.0.33
** Generated using HyperMesh-Abaqus Template Version : 2022.0.0.33
** Generated on 04-29-2024 at 11:42:19
**
**   Template:  ABAQUS/STANDARD 3D
**
*NODE
         3,  0.0            ,  -3.69017317E-13,  -2.71170936E-31
         4,  50.0           ,  50.000000000369,  -1.85962357E-16
         5,  50.0           ,  46.875000000357,  -1.85962357E-16
         6,  50.0           ,  43.750000000346,  -1.85962357E-16
         7,  50.0           ,  40.625000000334,  -1.85962357E-16
         8,  50.0           ,  37.500000000322,  -1.85962357E-16
         9,  50.0           ,  34.375000000311,  -1.85962357E-16
        10,  50.0           ,  31.2500000003  ,  -1.85962357E-16
        11,  50.0           ,  28.125000000288,  -1.85962357E-16
        12,  50.0           ,  25.000000000276,  -1.85962357E-16
        13,  50.0           ,  21.875000000265,  -1.85962357E-16
        14,  50.0           ,  18.750000000253,  -1.85962357E-16
        15,  50.0           ,  15.625000000242,  -1.85962357E-16
        16,  50.0           ,  12.50000000023 ,  -1.85962357E-16
        17,  50.0           ,  9.3750000002188,  -1.85962357E-16
        18,  50.0           ,  6.2500000002073,  -1.85962357E-16
        19,  50.0           ,  3.1250000001957,  -1.85962357E-16
        20,  50.0           ,  1.842082042E-10,  -1.85962357E-16
        21,  50.0           ,  -3.124999999827,  -1.85962357E-16
        22,  50.0           ,  -6.249999999839,  -1.85962357E-16
** ... 814 like lines cut
**HW_COMPONENT     ID=1     COLOR=7     NAME=plate_100_100     PROPERTY=shell_al_1mm
*ELEMENT,TYPE=S8R5
         1,       203,       208,       211,       201,       207,       210,       213,       202
         2,       201,       211,       194,       196,       213,       212,       195,       200
         3,       208,       181,       183,       211,       209,       182,       214,       210
         4,       211,       183,       185,       194,       214,       184,       193,       212
         5,       166,       168,       216,       205,       167,       215,       218,       206
         6,       205,       216,       208,       203,       218,       217,       207,       204
         7,       168,       170,       179,       216,       169,       178,       219,       215
         8,       216,       179,       181,       208,       219,       180,       209,       217
         9,       143,       221,       224,       141,       220,       223,       226,       142
        10,       141,       224,       198,       139,       226,       225,       199,       140
        11,       221,       203,       201,       224,       222,       202,       227,       223
        12,       224,       201,       196,       198,       227,       200,       197,       225
        13,       147,       164,       229,       145,       163,       228,       231,       146
        14,       145,       229,       221,       143,       231,       230,       220,       144
        15,       164,       166,       205,       229,       165,       206,       232,       228
        16,       229,       205,       203,       221,       232,       204,       222,       230
        17,       236,       241,       244,       234,       240,       243,       246,       235
        18,       234,       244,        78,        80,       246,       245,        79,       233
        19,       241,       189,       191,       244,       242,       190,       247,       243
        20,       244,       191,        76,        78,       247,       192,        77,       245
** ... 236 like lines cut
*ELSET, ELSET=HMprop_shell_al_1mm
         1,         2,         3,         4,         5,         6,         7,         8,
         9,        10,        11,        12,        13,        14,        15,        16,
        17,        18,        19,        20,        21,        22,        23,        24,
        25,        26,        27,        28,        29,        30,        31,        32,
        33,        34,        35,        36,        37,        38,        39,        40,
        41,        42,        43,        44,        45,        46,        47,        48,
        49,        50,        51,        52,        53,        54,        55,        56,
        57,        58,        59,        60,        61,        62,        63,        64,
        65,        66,        67,        68,        69,        70,        71,        72,
        73,        74,        75,        76,        77,        78,        79,        80,
        81,        82,        83,        84,        85,        86,        87,        88,
        89,        90,        91,        92,        93,        94,        95,        96,
        97,        98,        99,       100,       101,       102,       103,       104,
       105,       106,       107,       108,       109,       110,       111,       112,
       113,       114,       115,       116,       117,       118,       119,       120,
       121,       122,       123,       124,       125,       126,       127,       128,
       129,       130,       131,       132,       133,       134,       135,       136,
       137,       138,       139,       140,       141,       142,       143,       144,
       145,       146,       147,       148,       149,       150,       151,       152,
       153,       154,       155,       156,       157,       158,       159,       160,
** ... 12 like lines cut
**HM_set_by_property     7          1
*SHELL SECTION, ELSET=HMprop_shell_al_1mm, MATERIAL=material_AL
1.0       ,
**HMNAME MATS          1 material_AL     6
*MATERIAL, NAME=material_AL
*DENSITY
2.7000E-09,0.0       
*ELASTIC, TYPE = ISOTROPIC
72000.0   ,0.33      ,0.0       
**HMNAME LOADSTEP          1 step_1
*STEP
*STATIC
**HWNAME LOADCOL          1 fix
**HWCOLOR LOADCOL          1    39
*BOUNDARY
68,1,6,0.0
69,1,6,0.0
70,1,6,0.0
71,1,6,0.0
72,1,6,0.0
73,1,6,0.0
74,1,6,0.0
75,1,6,0.0
76,1,6,0.0
77,1,6,0.0
78,1,6,0.0
79,1,6,0.0
80,1,6,0.0
81,1,6,0.0
82,1,6,0.0
83,1,6,0.0
84,1,6,0.0
85,1,6,0.0
86,1,6,0.0
87,1,6,0.0
** ... 13 like lines cut
**HWNAME LOADCOL          2 nodeforce
**HWCOLOR LOADCOL          2    11
*CLOAD
20,3,1.0            
*OUTPUT, FIELD, VARIABLE = PRESELECT
*END STEP
*****
